REMARK  Name = /tmp/R98QPYR
REMARK                            x       y       z     vdW  Elec       q    Type
REMARK                         _______ _______ _______ _____ _____    ______ ____
ROOT
ATOM      1  C   LIG    1        0.675   5.332  -4.561  0.00  0.00    +0.163 C 
ENDROOT
BRANCH   1   4
ATOM      2  C   LIG    1        2.183   3.037  -4.051  0.00  0.00    +0.234 C 
ATOM      3  O   LIG    1        3.285   3.593  -3.955  0.00  0.00    -0.274 OA
ATOM      4  N   LIG    1        1.094   3.733  -4.648  0.00  0.00    -0.302 N 
ATOM      5  H   LIG    1        0.496   3.176  -5.199  0.00  0.00    +0.150 HD
BRANCH   2   6
ATOM      6  C   LIG    1        2.065   1.463  -3.359  0.00  0.00    +0.156 C 
ATOM      7  C   LIG    1        2.315   0.236  -4.305  0.00  0.00    +0.038 C 
BRANCH   6   9
ATOM      8  C   LIG    1        3.810   0.739  -1.200  0.00  0.00    +0.234 C 
ATOM      9  N   LIG    1        3.005   1.570  -2.027  0.00  0.00    -0.303 N 
ATOM     10  H   LIG    1        3.019   2.496  -1.694  0.00  0.00    +0.149 HD
ATOM     11  O   LIG    1        3.964  -0.458  -1.460  0.00  0.00    -0.274 OA
BRANCH   8  15
ATOM     12  C   LIG    1        5.614  -1.464   2.763  0.00  0.00    +0.058 C 
ATOM     13  C   LIG    1        6.601   2.444   1.233  0.00  0.00    -0.005 C 
ATOM     14  C   LIG    1        5.313   2.713   0.415  0.00  0.00    +0.017 C 
ATOM     15  C   LIG    1        4.470   1.393   0.294  0.00  0.00    +0.163 C 
ATOM     16  N   LIG    1        5.256   0.471   1.222  0.00  0.00    -0.290 N 
ATOM     17  C   LIG    1        6.565   0.986   1.611  0.00  0.00    +0.062 C 
ATOM     18  C   LIG    1        4.672  -0.550   1.965  0.00  0.00    +0.214 C 
ATOM     19  O   LIG    1        3.458  -0.735   1.988  0.00  0.00    -0.276 OA
ENDBRANCH   8  15
ENDBRANCH   6   9
ENDBRANCH   2   6
ENDBRANCH   1   4
BRANCH   1  20
ATOM     20  C   LIG    1       -0.797   5.170  -4.085  0.00  0.00    +0.234 C 
ATOM     21  N   LIG    1       -1.721   6.015  -4.354  0.00  0.00    -0.303 N 
ATOM     22  H   LIG    1       -1.349   6.852  -4.718  0.00  0.00    +0.128 HD
ATOM     23  O   LIG    1       -1.068   4.035  -3.439  0.00  0.00    -0.274 OA
BRANCH  21  24
ATOM     24  C   LIG    1       -3.223   6.072  -4.264  0.00  0.00    +0.160 C 
BRANCH  24  25
ATOM     25  C   LIG    1       -3.853   4.678  -4.584  0.00  0.00    +0.203 C 
ATOM     26  O   LIG    1       -3.482   3.617  -4.049  0.00  0.00    -0.277 OA
ATOM     27  N   LIG    1       -4.894   4.507  -5.433  0.00  0.00    -0.124 N 
ATOM     28  H   LIG    1       -4.545   5.128  -4.754  0.00  0.00    +0.106 HD
ATOM     29  H   LIG    1       -5.603   4.127  -4.865  0.00  0.00    +0.106 HD
ENDBRANCH  24  25
BRANCH  24  30
ATOM     30  C   LIG    1       -3.684   7.195  -5.215  0.00  0.00    +0.033 C 
BRANCH  30  36
ATOM     31  C   LIG    1       -1.855   8.903  -4.379  0.00  0.00    -0.058 A 
ATOM     32  C   LIG    1       -1.437  10.176  -4.045  0.00  0.00    +0.000 A 
ATOM     33  C   LIG    1       -2.372  11.177  -4.048  0.00  0.00    +0.000 A 
ATOM     34  C   LIG    1       -3.671  10.906  -4.490  0.00  0.00    +0.000 A 
ATOM     35  C   LIG    1       -4.019   9.665  -5.025  0.00  0.00    +0.004 A 
ATOM     36  C   LIG    1       -3.145   8.595  -4.882  0.00  0.00    -0.045 A 
ENDBRANCH  30  36
ENDBRANCH  24  30
ENDBRANCH  21  24
ENDBRANCH   1  20
BRANCH   1  37
ATOM     37  C   LIG    1        0.874   6.639  -5.774  0.00  0.00    +0.067 C 
BRANCH  37  42
ATOM     38  C   LIG    1       -1.300   5.976  -8.930  0.00  0.00    -0.061 A 
ATOM     39  C   LIG    1       -2.311   6.929  -8.863  0.00  0.00    +0.000 A 
ATOM     40  C   LIG    1       -2.079   8.041  -8.080  0.00  0.00    +0.000 A 
ATOM     41  C   LIG    1       -0.920   8.095  -7.243  0.00  0.00    -0.058 A 
ATOM     42  C   LIG    1       -0.054   6.960  -7.059  0.00  0.00    -0.045 A 
ATOM     43  C   LIG    1       -0.164   6.018  -8.079  0.00  0.00    +0.110 A 
ENDBRANCH  37  42
ENDBRANCH   1  37
TORSDOF 11

