
     RDKit          3D

 38 40  0  0  0  0  0  0  0  0999 V2000
    9.7379  -17.6059   -0.5687 C   0  0  0  0  0  0  0  0  0  0  0  0
   10.2373  -17.2789    0.8102 C   0  0  0  0  0  0  0  0  0  0  0  0
   11.4689  -17.2162    0.9430 O   0  0  0  0  0  0  0  0  0  0  0  0
    9.3393  -17.0660    1.8511 N   0  0  0  0  0  0  0  0  0  0  0  0
    9.7781  -17.1505    3.2825 C   0  0  0  0  0  0  0  0  0  0  0  0
    8.6684  -18.0288    3.8522 C   0  0  0  0  0  0  0  0  0  0  0  0
    7.5226  -17.9934    2.8233 C   0  0  0  0  0  0  0  0  0  0  0  0
    7.9618  -16.7810    2.0182 C   0  0  0  0  0  0  0  0  0  0  0  0
    7.1042  -16.4541    0.9202 C   0  0  0  0  0  0  0  0  0  0  0  0
    7.5950  -15.6548    0.0260 O   0  0  0  0  0  0  0  0  0  0  0  0
    5.7907  -16.8623    0.6319 N   0  0  0  0  0  0  0  0  0  0  0  0
    5.0922  -16.5531   -0.5917 C   0  0  0  0  0  0  0  0  0  0  0  0
    3.6316  -16.9462   -0.4536 C   0  0  0  0  0  0  0  0  0  0  0  0
    5.1018  -15.0797   -0.8737 C   0  0  0  0  0  0  0  0  0  0  0  0
    5.2484  -14.2774    0.0832 O   0  0  0  0  0  0  0  0  0  0  0  0
    4.9535  -14.5520   -2.1651 N   0  0  0  0  0  0  0  0  0  0  0  0
    5.1355  -13.1643   -2.5336 C   0  0  0  0  0  0  0  0  0  0  0  0
    5.7014  -13.0266   -3.9151 C   0  0  0  0  0  0  0  0  0  0  0  0
    6.0546  -11.6593   -4.2848 C   0  0  0  0  0  0  0  0  0  0  0  0
    5.4655  -11.0468   -5.3657 C   0  0  0  0  0  0  0  0  0  0  0  0
    5.7987   -9.7370   -5.7250 C   0  0  0  0  0  0  0  0  0  0  0  0
    6.7289   -9.0556   -4.9844 C   0  0  0  0  0  0  0  0  0  0  0  0
    7.3309   -9.6350   -3.9072 C   0  0  0  0  0  0  0  0  0  0  0  0
    6.9839  -10.9461   -3.5638 C   0  0  0  0  0  0  0  0  0  0  0  0
    3.7845  -12.4902   -2.5741 C   0  0  0  0  0  0  0  0  0  0  0  0
    3.0629  -12.6507   -3.5904 O   0  0  0  0  0  0  0  0  0  0  0  0
    3.3195  -11.6988   -1.5200 N   0  0  0  0  0  0  0  0  0  0  0  0
    2.1442  -10.8390   -1.6706 C   0  0  0  0  0  0  0  0  0  0  0  0
    1.0047  -11.3544   -0.8501 C   0  0  0  0  0  0  0  0  0  0  0  0
    1.4278  -11.6786    0.5199 C   0  0  0  0  0  0  0  0  0  0  0  0
    1.6638  -10.6614    1.4179 C   0  0  0  0  0  0  0  0  0  0  0  0
    2.0590  -10.9273    2.7008 C   0  0  0  0  0  0  0  0  0  0  0  0
    2.2195  -12.2391    3.0865 C   0  0  0  0  0  0  0  0  0  0  0  0
    1.9909  -13.2794    2.2109 C   0  0  0  0  0  0  0  0  0  0  0  0
    1.5936  -13.0056    0.9217 C   0  0  0  0  0  0  0  0  0  0  0  0
    1.8467  -10.6390   -3.0873 C   0  0  0  0  0  0  0  0  0  0  0  0
    2.5949  -11.2260   -3.9446 O   0  0  0  0  0  0  0  0  0  0  0  0
    0.7913   -9.8418   -3.6133 N   0  0  0  0  0  0  0  0  0  0  0  0
  1  2  1  0
  2  3  2  0
  2  4  1  0
  4  5  1  0
  5  6  1  0
  6  7  1  0
  7  8  1  0
  8  9  1  0
  9 10  2  0
  9 11  1  0
 11 12  1  0
 12 13  1  0
 12 14  1  0
 14 15  2  0
 14 16  1  0
 16 17  1  0
 17 18  1  0
 18 19  1  0
 19 20  2  0
 20 21  1  0
 21 22  2  0
 22 23  1  0
 23 24  2  0
 17 25  1  0
 25 26  2  0
 25 27  1  0
 27 28  1  0
 28 29  1  0
 29 30  1  0
 30 31  2  0
 31 32  1  0
 32 33  2  0
 33 34  1  0
 34 35  2  0
 28 36  1  0
 36 37  2  0
 36 38  1  0
  8  4  1  0
 24 19  1  0
 35 30  1  0
M  END
$$$$
