
     RDKit          3D

 38 40  0  0  0  0  0  0  0  0999 V2000
    4.7570  -15.0396   -0.6889 C   0  0  0  0  0  0  0  0  0  0  0  0
    6.0165  -15.8438   -0.8470 C   0  0  0  0  0  0  0  0  0  0  0  0
    6.2035  -16.7345   -0.0043 O   0  0  0  0  0  0  0  0  0  0  0  0
    6.8964  -15.5745   -1.8902 N   0  0  0  0  0  0  0  0  0  0  0  0
    7.9515  -16.5628   -2.2887 C   0  0  0  0  0  0  0  0  0  0  0  0
    9.1647  -15.6415   -2.3719 C   0  0  0  0  0  0  0  0  0  0  0  0
    8.6095  -14.2061   -2.4365 C   0  0  0  0  0  0  0  0  0  0  0  0
    7.1681  -14.5235   -2.8004 C   0  0  0  0  0  0  0  0  0  0  0  0
    6.3209  -13.3773   -2.9284 C   0  0  0  0  0  0  0  0  0  0  0  0
    5.9003  -12.8474   -1.8231 O   0  0  0  0  0  0  0  0  0  0  0  0
    5.8572  -12.7053   -4.0723 N   0  0  0  0  0  0  0  0  0  0  0  0
    5.1590  -11.4433   -4.0480 C   0  0  0  0  0  0  0  0  0  0  0  0
    4.8070  -11.0326   -5.4673 C   0  0  0  0  0  0  0  0  0  0  0  0
    3.8570  -11.5488   -3.3102 C   0  0  0  0  0  0  0  0  0  0  0  0
    3.8619  -11.4886   -2.0543 O   0  0  0  0  0  0  0  0  0  0  0  0
    2.6254  -11.7128   -3.9617 N   0  0  0  0  0  0  0  0  0  0  0  0
    1.3623  -11.9976   -3.3151 C   0  0  0  0  0  0  0  0  0  0  0  0
    0.2029  -11.7724   -4.2387 C   0  0  0  0  0  0  0  0  0  0  0  0
   -0.3961  -10.4451   -4.1364 C   0  0  0  0  0  0  0  0  0  0  0  0
   -0.2310   -9.5181   -5.1384 C   0  0  0  0  0  0  0  0  0  0  0  0
   -0.8026   -8.2450   -5.0471 C   0  0  0  0  0  0  0  0  0  0  0  0
   -1.5391   -7.9198   -3.9382 C   0  0  0  0  0  0  0  0  0  0  0  0
   -1.7212   -8.8165   -2.9277 C   0  0  0  0  0  0  0  0  0  0  0  0
   -1.1414  -10.0850   -3.0378 C   0  0  0  0  0  0  0  0  0  0  0  0
    1.3203  -13.4632   -2.9529 C   0  0  0  0  0  0  0  0  0  0  0  0
    0.7687  -14.2637   -3.7494 O   0  0  0  0  0  0  0  0  0  0  0  0
    1.8739  -13.9490   -1.7651 N   0  0  0  0  0  0  0  0  0  0  0  0
    1.6328  -15.3210   -1.3145 C   0  0  0  0  0  0  0  0  0  0  0  0
    2.0129  -15.4786    0.1235 C   0  0  0  0  0  0  0  0  0  0  0  0
    1.4637  -14.3941    0.9501 C   0  0  0  0  0  0  0  0  0  0  0  0
    0.1257  -14.3985    1.2771 C   0  0  0  0  0  0  0  0  0  0  0  0
   -0.4185  -13.4046    2.0445 C   0  0  0  0  0  0  0  0  0  0  0  0
    0.3973  -12.3893    2.4903 C   0  0  0  0  0  0  0  0  0  0  0  0
    1.7404  -12.3569    2.1800 C   0  0  0  0  0  0  0  0  0  0  0  0
    2.2821  -13.3594    1.4077 C   0  0  0  0  0  0  0  0  0  0  0  0
    2.2654  -16.2683   -2.2298 C   0  0  0  0  0  0  0  0  0  0  0  0
    3.3669  -15.9218   -2.7829 O   0  0  0  0  0  0  0  0  0  0  0  0
    1.7668  -17.5570   -2.5719 N   0  0  0  0  0  0  0  0  0  0  0  0
  1  2  1  0
  2  3  2  0
  2  4  1  0
  4  5  1  0
  5  6  1  0
  6  7  1  0
  7  8  1  0
  8  9  1  0
  9 10  2  0
  9 11  1  0
 11 12  1  0
 12 13  1  0
 12 14  1  0
 14 15  2  0
 14 16  1  0
 16 17  1  0
 17 18  1  0
 18 19  1  0
 19 20  2  0
 20 21  1  0
 21 22  2  0
 22 23  1  0
 23 24  2  0
 17 25  1  0
 25 26  2  0
 25 27  1  0
 27 28  1  0
 28 29  1  0
 29 30  1  0
 30 31  2  0
 31 32  1  0
 32 33  2  0
 33 34  1  0
 34 35  2  0
 28 36  1  0
 36 37  2  0
 36 38  1  0
  8  4  1  0
 24 19  1  0
 35 30  1  0
M  END
$$$$
