
     RDKit          3D

 38 40  0  0  0  0  0  0  0  0999 V2000
   10.0538  -17.8730   -0.5949 C   0  0  0  0  0  0  0  0  0  0  0  0
    8.6875  -17.3611   -0.9539 C   0  0  0  0  0  0  0  0  0  0  0  0
    8.2505  -17.7056   -2.0624 O   0  0  0  0  0  0  0  0  0  0  0  0
    7.9853  -16.5503   -0.0680 N   0  0  0  0  0  0  0  0  0  0  0  0
    8.4944  -16.2956    1.3193 C   0  0  0  0  0  0  0  0  0  0  0  0
    7.2217  -16.5457    2.1225 C   0  0  0  0  0  0  0  0  0  0  0  0
    6.0597  -16.4915    1.1128 C   0  0  0  0  0  0  0  0  0  0  0  0
    6.7775  -15.8105   -0.0413 C   0  0  0  0  0  0  0  0  0  0  0  0
    5.9718  -15.6091   -1.2067 C   0  0  0  0  0  0  0  0  0  0  0  0
    6.2649  -16.3338   -2.2402 O   0  0  0  0  0  0  0  0  0  0  0  0
    4.8872  -14.7440   -1.4309 N   0  0  0  0  0  0  0  0  0  0  0  0
    3.6070  -15.1608   -1.9489 C   0  0  0  0  0  0  0  0  0  0  0  0
    3.2877  -16.5574   -1.4442 C   0  0  0  0  0  0  0  0  0  0  0  0
    2.4996  -14.2768   -1.4562 C   0  0  0  0  0  0  0  0  0  0  0  0
    1.3133  -14.6857   -1.5344 O   0  0  0  0  0  0  0  0  0  0  0  0
    2.7285  -13.0056   -0.9084 N   0  0  0  0  0  0  0  0  0  0  0  0
    1.8390  -11.8692   -1.0178 C   0  0  0  0  0  0  0  0  0  0  0  0
    2.4588  -10.6236   -0.4591 C   0  0  0  0  0  0  0  0  0  0  0  0
    2.5541  -10.6029    0.9975 C   0  0  0  0  0  0  0  0  0  0  0  0
    3.1233   -9.5357    1.6516 C   0  0  0  0  0  0  0  0  0  0  0  0
    3.2173   -9.5091    3.0466 C   0  0  0  0  0  0  0  0  0  0  0  0
    2.7326  -10.5669    3.7706 C   0  0  0  0  0  0  0  0  0  0  0  0
    2.1627  -11.6397    3.1518 C   0  0  0  0  0  0  0  0  0  0  0  0
    2.0780  -11.6474    1.7554 C   0  0  0  0  0  0  0  0  0  0  0  0
    1.5910  -11.5841   -2.4802 C   0  0  0  0  0  0  0  0  0  0  0  0
    2.4825  -11.8893   -3.3117 O   0  0  0  0  0  0  0  0  0  0  0  0
    0.4060  -10.9946   -2.9295 N   0  0  0  0  0  0  0  0  0  0  0  0
    0.0854  -10.9140   -4.3557 C   0  0  0  0  0  0  0  0  0  0  0  0
    1.1912  -10.2444   -5.1081 C   0  0  0  0  0  0  0  0  0  0  0  0
    1.0000  -10.3536   -6.5615 C   0  0  0  0  0  0  0  0  0  0  0  0
    1.5046  -11.4444   -7.2343 C   0  0  0  0  0  0  0  0  0  0  0  0
    1.3450  -11.5776   -8.5869 C   0  0  0  0  0  0  0  0  0  0  0  0
    0.6662  -10.5967   -9.2741 C   0  0  0  0  0  0  0  0  0  0  0  0
    0.1493   -9.4931   -8.6292 C   0  0  0  0  0  0  0  0  0  0  0  0
    0.3131   -9.3645   -7.2685 C   0  0  0  0  0  0  0  0  0  0  0  0
   -1.2372  -10.3206   -4.5400 C   0  0  0  0  0  0  0  0  0  0  0  0
   -1.7071   -9.5994   -3.5922 O   0  0  0  0  0  0  0  0  0  0  0  0
   -2.0659  -10.4708   -5.6876 N   0  0  0  0  0  0  0  0  0  0  0  0
  1  2  1  0
  2  3  2  0
  2  4  1  0
  4  5  1  0
  5  6  1  0
  6  7  1  0
  7  8  1  0
  8  9  1  0
  9 10  2  0
  9 11  1  0
 11 12  1  0
 12 13  1  0
 12 14  1  0
 14 15  2  0
 14 16  1  0
 16 17  1  0
 17 18  1  0
 18 19  1  0
 19 20  2  0
 20 21  1  0
 21 22  2  0
 22 23  1  0
 23 24  2  0
 17 25  1  0
 25 26  2  0
 25 27  1  0
 27 28  1  0
 28 29  1  0
 29 30  1  0
 30 31  2  0
 31 32  1  0
 32 33  2  0
 33 34  1  0
 34 35  2  0
 28 36  1  0
 36 37  2  0
 36 38  1  0
  8  4  1  0
 24 19  1  0
 35 30  1  0
M  END
$$$$
