
     RDKit          3D

 38 40  0  0  0  0  0  0  0  0999 V2000
    7.1252  -14.0224   -4.0182 C   0  0  0  0  0  0  0  0  0  0  0  0
    6.1380  -14.0448   -2.8856 C   0  0  0  0  0  0  0  0  0  0  0  0
    5.1945  -13.2439   -2.9693 O   0  0  0  0  0  0  0  0  0  0  0  0
    6.3068  -14.9266   -1.8230 N   0  0  0  0  0  0  0  0  0  0  0  0
    7.2588  -14.6203   -0.7056 C   0  0  0  0  0  0  0  0  0  0  0  0
    7.9962  -15.9522   -0.6083 C   0  0  0  0  0  0  0  0  0  0  0  0
    7.1254  -16.9801   -1.3555 C   0  0  0  0  0  0  0  0  0  0  0  0
    5.8254  -16.1944   -1.4137 C   0  0  0  0  0  0  0  0  0  0  0  0
    4.7548  -16.8654   -2.0859 C   0  0  0  0  0  0  0  0  0  0  0  0
    5.0903  -17.6461   -3.0643 O   0  0  0  0  0  0  0  0  0  0  0  0
    3.3679  -16.8286   -1.8618 N   0  0  0  0  0  0  0  0  0  0  0  0
    2.3849  -17.4045   -2.7465 C   0  0  0  0  0  0  0  0  0  0  0  0
    1.4793  -18.3355   -1.9590 C   0  0  0  0  0  0  0  0  0  0  0  0
    1.4907  -16.3532   -3.3347 C   0  0  0  0  0  0  0  0  0  0  0  0
    0.3216  -16.6680   -3.6736 O   0  0  0  0  0  0  0  0  0  0  0  0
    1.9021  -15.0256   -3.5256 N   0  0  0  0  0  0  0  0  0  0  0  0
    1.1365  -13.9946   -4.1931 C   0  0  0  0  0  0  0  0  0  0  0  0
   -0.1313  -13.6806   -3.4569 C   0  0  0  0  0  0  0  0  0  0  0  0
   -1.0086  -12.7404   -4.1479 C   0  0  0  0  0  0  0  0  0  0  0  0
   -0.8655  -11.3841   -3.9734 C   0  0  0  0  0  0  0  0  0  0  0  0
   -1.7021  -10.4779   -4.6327 C   0  0  0  0  0  0  0  0  0  0  0  0
   -2.6801  -10.9540   -5.4662 C   0  0  0  0  0  0  0  0  0  0  0  0
   -2.8476  -12.2929   -5.6603 C   0  0  0  0  0  0  0  0  0  0  0  0
   -2.0006  -13.1833   -4.9917 C   0  0  0  0  0  0  0  0  0  0  0  0
    1.9391  -12.7152   -4.1931 C   0  0  0  0  0  0  0  0  0  0  0  0
    2.3258  -12.2483   -5.2940 O   0  0  0  0  0  0  0  0  0  0  0  0
    2.2607  -12.0423   -3.0111 N   0  0  0  0  0  0  0  0  0  0  0  0
    3.1600  -10.8870   -3.0097 C   0  0  0  0  0  0  0  0  0  0  0  0
    4.5478  -11.2990   -2.6334 C   0  0  0  0  0  0  0  0  0  0  0  0
    5.5326  -10.8568   -3.6312 C   0  0  0  0  0  0  0  0  0  0  0  0
    5.1045  -10.2125   -4.7708 C   0  0  0  0  0  0  0  0  0  0  0  0
    5.9940   -9.7877   -5.7201 C   0  0  0  0  0  0  0  0  0  0  0  0
    7.3368  -10.0150   -5.5193 C   0  0  0  0  0  0  0  0  0  0  0  0
    7.7965  -10.6570   -4.3890 C   0  0  0  0  0  0  0  0  0  0  0  0
    6.8970  -11.0821   -3.4376 C   0  0  0  0  0  0  0  0  0  0  0  0
    2.5927   -9.8103   -2.2008 C   0  0  0  0  0  0  0  0  0  0  0  0
    1.6563  -10.1080   -1.3800 O   0  0  0  0  0  0  0  0  0  0  0  0
    2.9855   -8.4426   -2.2395 N   0  0  0  0  0  0  0  0  0  0  0  0
  1  2  1  0
  2  3  2  0
  2  4  1  0
  4  5  1  0
  5  6  1  0
  6  7  1  0
  7  8  1  0
  8  9  1  0
  9 10  2  0
  9 11  1  0
 11 12  1  0
 12 13  1  0
 12 14  1  0
 14 15  2  0
 14 16  1  0
 16 17  1  0
 17 18  1  0
 18 19  1  0
 19 20  2  0
 20 21  1  0
 21 22  2  0
 22 23  1  0
 23 24  2  0
 17 25  1  0
 25 26  2  0
 25 27  1  0
 27 28  1  0
 28 29  1  0
 29 30  1  0
 30 31  2  0
 31 32  1  0
 32 33  2  0
 33 34  1  0
 34 35  2  0
 28 36  1  0
 36 37  2  0
 36 38  1  0
  8  4  1  0
 24 19  1  0
 35 30  1  0
M  END
$$$$
