
     RDKit          3D

 38 40  0  0  0  0  0  0  0  0999 V2000
    7.9863  -15.6124    1.0941 C   0  0  0  0  0  0  0  0  0  0  0  0
    6.9523  -15.5844    0.0042 C   0  0  0  0  0  0  0  0  0  0  0  0
    6.5589  -14.4611   -0.3448 O   0  0  0  0  0  0  0  0  0  0  0  0
    6.4883  -16.7704   -0.5554 N   0  0  0  0  0  0  0  0  0  0  0  0
    6.8949  -18.1017    0.0024 C   0  0  0  0  0  0  0  0  0  0  0  0
    7.2772  -18.8266   -1.2844 C   0  0  0  0  0  0  0  0  0  0  0  0
    6.6581  -18.0119   -2.4358 C   0  0  0  0  0  0  0  0  0  0  0  0
    5.6684  -17.1809   -1.6353 C   0  0  0  0  0  0  0  0  0  0  0  0
    4.9008  -16.2575   -2.4138 C   0  0  0  0  0  0  0  0  0  0  0  0
    5.0879  -14.9999   -2.1630 O   0  0  0  0  0  0  0  0  0  0  0  0
    3.9588  -16.4813   -3.4325 N   0  0  0  0  0  0  0  0  0  0  0  0
    3.4249  -15.4501   -4.2883 C   0  0  0  0  0  0  0  0  0  0  0  0
    2.0080  -15.8149   -4.6962 C   0  0  0  0  0  0  0  0  0  0  0  0
    3.3263  -14.1361   -3.5711 C   0  0  0  0  0  0  0  0  0  0  0  0
    2.8283  -14.1079   -2.4171 O   0  0  0  0  0  0  0  0  0  0  0  0
    3.7673  -12.9286   -4.1332 N   0  0  0  0  0  0  0  0  0  0  0  0
    3.6104  -11.6175   -3.5408 C   0  0  0  0  0  0  0  0  0  0  0  0
    4.2278  -10.5473   -4.3903 C   0  0  0  0  0  0  0  0  0  0  0  0
    5.6137  -10.8070   -4.7681 C   0  0  0  0  0  0  0  0  0  0  0  0
    6.2904   -9.9470   -5.6007 C   0  0  0  0  0  0  0  0  0  0  0  0
    7.6183  -10.1895   -5.9662 C   0  0  0  0  0  0  0  0  0  0  0  0
    8.2525  -11.3045   -5.4841 C   0  0  0  0  0  0  0  0  0  0  0  0
    7.6092  -12.1764   -4.6569 C   0  0  0  0  0  0  0  0  0  0  0  0
    6.2809  -11.9163   -4.3028 C   0  0  0  0  0  0  0  0  0  0  0  0
    2.1381  -11.2879   -3.4708 C   0  0  0  0  0  0  0  0  0  0  0  0
    1.6250  -10.6263   -4.4080 O   0  0  0  0  0  0  0  0  0  0  0  0
    1.3378  -11.6956   -2.3999 N   0  0  0  0  0  0  0  0  0  0  0  0
    1.2699  -10.9224   -1.1586 C   0  0  0  0  0  0  0  0  0  0  0  0
    0.5563  -11.6941   -0.0945 C   0  0  0  0  0  0  0  0  0  0  0  0
    1.3315  -12.8669    0.3352 C   0  0  0  0  0  0  0  0  0  0  0  0
    2.5823  -13.0882   -0.1973 C   0  0  0  0  0  0  0  0  0  0  0  0
    3.3309  -14.1699    0.1801 C   0  0  0  0  0  0  0  0  0  0  0  0
    2.8121  -15.0435    1.1089 C   0  0  0  0  0  0  0  0  0  0  0  0
    1.5634  -14.8492    1.6603 C   0  0  0  0  0  0  0  0  0  0  0  0
    0.8150  -13.7594    1.2767 C   0  0  0  0  0  0  0  0  0  0  0  0
    0.7303   -9.5909   -1.4255 C   0  0  0  0  0  0  0  0  0  0  0  0
    0.6549   -8.7684   -0.4472 O   0  0  0  0  0  0  0  0  0  0  0  0
    0.2723   -9.1141   -2.6862 N   0  0  0  0  0  0  0  0  0  0  0  0
  1  2  1  0
  2  3  2  0
  2  4  1  0
  4  5  1  0
  5  6  1  0
  6  7  1  0
  7  8  1  0
  8  9  1  0
  9 10  2  0
  9 11  1  0
 11 12  1  0
 12 13  1  0
 12 14  1  0
 14 15  2  0
 14 16  1  0
 16 17  1  0
 17 18  1  0
 18 19  1  0
 19 20  2  0
 20 21  1  0
 21 22  2  0
 22 23  1  0
 23 24  2  0
 17 25  1  0
 25 26  2  0
 25 27  1  0
 27 28  1  0
 28 29  1  0
 29 30  1  0
 30 31  2  0
 31 32  1  0
 32 33  2  0
 33 34  1  0
 34 35  2  0
 28 36  1  0
 36 37  2  0
 36 38  1  0
  8  4  1  0
 24 19  1  0
 35 30  1  0
M  END
$$$$
